# Packages
 &PACKAGES
 useOBCS=.FALSE.,
 useRBCS=.FALSE.,
 useMNC=.TRUE.,
 &
